/*--------------------------------*- C++ -*----------------------------------*\
| =========                 |                                                 |
| \\      /  F ield         | OpenFOAM: The Open Source CFD Toolbox           |
|  \\    /   O peration     | Version:  2212                                  |
|   \\  /    A nd           | Website:  www.openfoam.com                      |
|    \\/     M anipulation  |                                                 |
\*---------------------------------------------------------------------------*/
FoamFile
{
    version     2.0;
    format      ascii;
    arch        "LSB;label=32;scalar=64";
    class       dictionary;
    location    "constant/polyMesh";
    object      meshMetaDict;
}
// * * * * * * * * * * * * * * * * * * * * * * * * * * * * * * * * * * * * * //

surfaceFile     "constant/triSurface/box-in-box.stl";

surfaceMeta
{
    nPoints         20;
    nFacets         36;
    nPatches        7;
    nFeatureEdges   0;
    patches
    {
        xMin
        {
            type            empty;
            nFacets         2;
        }
        xMax
        {
            type            empty;
            nFacets         2;
        }
        yMin
        {
            type            empty;
            nFacets         12;
        }
        yMax
        {
            type            empty;
            nFacets         2;
        }
        zMin
        {
            type            empty;
            nFacets         2;
        }
        zMax
        {
            type            empty;
            nFacets         2;
        }
        object
        {
            type            empty;
            nFacets         14;
        }
    }
    pointSubsets
    {
    }
    facetSubsets
    {
    }
    featureEdgeSubsets
    {
    }
}
